LAMMPS (23 Jun 2022 - Update 1)
# ---------- Initialize Simulation ---------------------
clear
units metal
dimension 3
boundary p p p
atom_style atomic
atom_modify map array
# ---------- define variables ---------------------
variable stemperature equal 300 # temperature in kelvin
variable alattice equal 4.057 # lattice constant (unit A for Al )
variable myseed equal 12345 # the value seed for the velocity

variable QL equal 16
variable time_step equal "0.016" # time step in pico seconds

variable Up1 equal 7.5
timestep 0.016

# ---------- Create Atoms ---------------------

read_restart ../../relax/restart_eq
Reading restart file ...
  restart file = 23 Jun 2022, LAMMPS = 23 Jun 2022
  restoring atom style atomic from restart
  orthogonal box = (-0.26799616 -0.27077339 -1.0407774) to (647.71712 654.4294 1860.914)
  pair style eam/alloy stores no restart info
  43680000 atoms
  read_restart CPU = 47.132 seconds

# ---------------pair----------------------------

pair_style eam/alloy
pair_coeff * * ./QCMD16.eam.alloy Ta

# ----------------------relax---------------------
region ball1 sphere 325 325 843.75 31.25 units box
delete_atoms region ball1 compress yes
Deleted 7092 atoms, new total = 43672908

region posion block INF INF INF INF INF 10 units box
group gogogo region posion
257053 atoms in group gogogo

change_box all x scale 16 y scale 16 z scale 16 remap
Changing box ...
  orthogonal box = (-4860.1564 -0.27077339 -1.2269895) to (5507.6055 654.4294 1861.1002)
  orthogonal box = (-4860.1564 -4910.5221 -1.4132222) to (5507.6055 5564.6807 1861.2864)
  orthogonal box = (-4860.1564 -4910.5221 -13974.641) to (5507.6055 5564.6807 15834.514)

fix 1 all nve
run 2000
  update every 1 steps, delay 10 steps, check yes
Step          Temp          E_pair         E_mol          TotEng         Press          Volume
0   300.53452     -3.5190961e+08  0             -3.5021305e+08 -0.2985691      3.2374055e+12
Loop time of 772.234 on 200 procs for 2000 steps with 43672908 atoms

reset_timestep 0

# -----------------------compute----------------------------------

compute  peratom  all  stress/atom NULL
compute myKE all ke/atom
compute myPE all pe/atom

# ------------------------shock-----------------------------------

lattice fcc 4.065 origin 0.0 0.0 0.0 orient x 1 0 0 orient y 0 1 0 orient z 0 0 1
Lattice spacing in x,y,z = 4.065 4.065 4.065

shell mkdir run
shell cd run

timestep 0.016

fix 1 all nve

run 100
Step          Temp          E_pair         E_mol          TotEng         Press          Volume
0   300.79932     -3.5191111e+08  0             -3.5021305e+08 -0.30070434     3.2377072e+12
Loop time of 38.3996 on 200 procs for 100 steps with 43672908 atoms

reset_timestep 0

#variable zmin1 equal zlo

set group gogogo vx 0.0 vy 0.0 vz 7.5
Setting atom values ...
  257053 settings made for vx
  257053 settings made for vy
  257053 settings made for vz
fix walls gogogo setforce 0.0 0.0 0.0

compute cc1 all chunk/atom bin/1d z lower 5

fix bin1 all ave/chunk 400 1 400 cc1 vx vy vz c_peratom[1] c_peratom[2] c_peratom[3]  temp norm all file BIN.out
#Use cfg for AtomEye

dump 2 all cfg 1250 dump._*.cfg.gz mass type xs ys zs vx vy vz id
run 18750
Step          Temp          E_pair         E_mol          TotEng         Press          Volume
0   322.70878     -3.5190973e+08  0             -3.5008798e+08 -0.26196533     3.23735e+12
Loop time of 14048.5 on 200 procs for 18750 steps with 43672908 atoms

delete_atoms group gogogo compress no
Deleted 257053 atoms, new total = 43415855
run 11250
Step          Temp          E_pair         E_mol          TotEng         Press          Volume
18750   2335.7936     -3.3951397e+08  0             -3.2640564e+08  54.094433      2.9749201e+12
Loop time of 8440.34 on 200 procs for 11250 steps with 43415855 atoms

#unfix walls
#run 120000
